20
SCF Done             -5.1121368820e+05;
Zn -1.4177211800 -2.7506972700 -0.5156503000 0.00
Zn 0.3829785300 -1.6724954000 -2.0260710100 0.00
Zn -0.2831634100 -1.2228016300 1.8046078900 0.00
Zn -1.8294751200 0.0423370600 0.1583672100 0.00
Zn 1.0080453500 1.1904901900 1.7463692000 0.00
Zn 1.0821575200 3.0466811100 -0.1788851100 0.00
Zn 2.1385365300 -0.6594107800 0.1212188900 0.00
Zn -1.1443753400 1.9545924200 -1.5695309200 0.00
Zn 1.3041181100 0.9192705400 -1.7383137600 0.00
Zn -1.3119032400 2.4599467000 1.2186527000 0.00
O -0.6473972900 0.0098918500 -1.4725006800 0.00
O 1.5363681800 -0.8509105000 1.8704587000 0.00
O 2.1095984200 1.3617051900 0.1106923400 0.00
O -2.4393624400 1.9145647400 -0.2035531700 0.00
O 0.3869899100 3.1848708900 1.5533963500 0.00
O -1.8787085600 -1.8052289200 0.9428968100 0.00
O 2.0627519600 -0.8526657700 -1.7582656400 0.00
O 0.5529582500 2.6964149500 -1.9786352700 0.00
O -0.8995160100 0.6490847000 1.9123603900 0.00
O -0.6038179200 -3.2174085700 -1.9951100700 0.00
